
#######################################################################
#
#                 Cambridge Crystallographic Data Centre
#                                CCDC 
#
#######################################################################
#
# If this CIF has been generated from an entry in the Cambridge 
# Structural Database, then it will include bibliographic, chemical, 
# crystal, experimental, refinement or atomic coordinate data resulting 
# from the CCDC's data processing and validation procedures.
#
#######################################################################

data_BENZEN03
_symmetry_cell_setting           monoclinic
_symmetry_space_group_name_H-M   'P 21/c'
_symmetry_Int_Tables_number      14
_space_group_name_Hall           '-P 2ybc'
loop_
_symmetry_equiv_pos_site_id
_symmetry_equiv_pos_as_xyz
1 x,y,z
2 -x,1/2+y,1/2-z
3 -x,-y,-z
4 x,1/2-y,1/2+z
_cell_length_a                   5.417(5)
_cell_length_b                   5.376(19)
_cell_length_c                   7.532(7)
_cell_angle_alpha                90
_cell_angle_beta                 110.00(8)
_cell_angle_gamma                90
_cell_volume                     206.117
loop_
_atom_site_label
_atom_site_type_symbol
_atom_site_fract_x
_atom_site_fract_y
_atom_site_fract_z
C1 C -0.26140 -0.02341 -0.11498
C2 C -0.08015 -0.20459 -0.11875
C3 C -0.18125 0.18119 0.00377
H1 H -0.44006 -0.03940 -0.19357
H2 H -0.13480 -0.34492 -0.20007
H3 H -0.30525 0.30552 0.00650
C3B C 0.18125 -0.18119 -0.00377
C1B C 0.26140 0.02341 0.11498
C2B C 0.08015 0.20459 0.11875
H2B H 0.13480 0.34492 0.20007
H1B H 0.44006 0.03940 0.19357
H3B H 0.30525 -0.30552 -0.00650
C1 C -0.26140 -0.02341 0.88502
C2 C -0.08015 -0.20459 0.88125
C3 C -0.18125 0.18119 1.00377
H1 H -0.44006 -0.03940 0.80643
H2 H -0.13480 -0.34492 0.79993
H3 H -0.30525 0.30552 1.00650
C3B C 0.18125 -0.18119 0.99623
C1B C 0.26140 0.02341 1.11498
C2B C 0.08015 0.20459 1.11875
H2B H 0.13480 0.34492 1.20007
H1B H 0.44006 0.03940 1.19357
H3B H 0.30525 -0.30552 0.99350
C1 C -0.26140 0.97659 -0.11498
C2 C -0.08015 0.79541 -0.11875
C3 C -0.18125 1.18119 0.00377
H1 H -0.44006 0.96060 -0.19357
H2 H -0.13480 0.65508 -0.20007
H3 H -0.30525 1.30552 0.00650
C3B C 0.18125 0.81881 -0.00377
C1B C 0.26140 1.02341 0.11498
C2B C 0.08015 1.20459 0.11875
H2B H 0.13480 1.34492 0.20007
H1B H 0.44006 1.03940 0.19357
H3B H 0.30525 0.69448 -0.00650
C1 C -0.26140 0.97659 0.88502
C2 C -0.08015 0.79541 0.88125
C3 C -0.18125 1.18119 1.00377
H1 H -0.44006 0.96060 0.80643
H2 H -0.13480 0.65508 0.79993
H3 H -0.30525 1.30552 1.00650
C3B C 0.18125 0.81881 0.99623
C1B C 0.26140 1.02341 1.11498
C2B C 0.08015 1.20459 1.11875
H2B H 0.13480 1.34492 1.20007
H1B H 0.44006 1.03940 1.19357
H3B H 0.30525 0.69448 0.99350
C1 C 0.73860 -0.02341 -0.11498
C2 C 0.91985 -0.20459 -0.11875
C3 C 0.81875 0.18119 0.00377
H1 H 0.55994 -0.03940 -0.19357
H2 H 0.86520 -0.34492 -0.20007
H3 H 0.69475 0.30552 0.00650
C3B C 1.18125 -0.18119 -0.00377
C1B C 1.26140 0.02341 0.11498
C2B C 1.08015 0.20459 0.11875
H2B H 1.13480 0.34492 0.20007
H1B H 1.44006 0.03940 0.19357
H3B H 1.30525 -0.30552 -0.00650
C1 C 0.73860 -0.02341 0.88502
C2 C 0.91985 -0.20459 0.88125
C3 C 0.81875 0.18119 1.00377
H1 H 0.55994 -0.03940 0.80643
H2 H 0.86520 -0.34492 0.79993
H3 H 0.69475 0.30552 1.00650
C3B C 1.18125 -0.18119 0.99623
C1B C 1.26140 0.02341 1.11498
C2B C 1.08015 0.20459 1.11875
H2B H 1.13480 0.34492 1.20007
H1B H 1.44006 0.03940 1.19357
H3B H 1.30525 -0.30552 0.99350
C1 C 0.73860 0.97659 -0.11498
C2 C 0.91985 0.79541 -0.11875
C3 C 0.81875 1.18119 0.00377
H1 H 0.55994 0.96060 -0.19357
H2 H 0.86520 0.65508 -0.20007
H3 H 0.69475 1.30552 0.00650
C3B C 1.18125 0.81881 -0.00377
C1B C 1.26140 1.02341 0.11498
C2B C 1.08015 1.20459 0.11875
H2B H 1.13480 1.34492 0.20007
H1B H 1.44006 1.03940 0.19357
H3B H 1.30525 0.69448 -0.00650
C1 C 0.73860 0.97659 0.88502
C2 C 0.91985 0.79541 0.88125
C3 C 0.81875 1.18119 1.00377
H1 H 0.55994 0.96060 0.80643
H2 H 0.86520 0.65508 0.79993
H3 H 0.69475 1.30552 1.00650
C3B C 1.18125 0.81881 0.99623
C1B C 1.26140 1.02341 1.11498
C2B C 1.08015 1.20459 1.11875
H2B H 1.13480 1.34492 1.20007
H1B H 1.44006 1.03940 1.19357
H3B H 1.30525 0.69448 0.99350
C1 C 0.26140 0.47659 0.61498
C2 C 0.08015 0.29541 0.61875
C3 C 0.18125 0.68119 0.49623
H1 H 0.44006 0.46060 0.69357
H2 H 0.13480 0.15508 0.70007
H3 H 0.30525 0.80552 0.49350
C3B C -0.18125 0.31881 0.50377
C1B C -0.26140 0.52341 0.38502
C2B C -0.08015 0.70459 0.38125
H2B H -0.13480 0.84492 0.29993
H1B H -0.44006 0.53940 0.30643
H3B H -0.30525 0.19448 0.50650
C1 C 1.26140 0.47659 0.61498
C2 C 1.08015 0.29541 0.61875
C3 C 1.18125 0.68119 0.49623
H1 H 1.44006 0.46060 0.69357
H2 H 1.13480 0.15508 0.70007
H3 H 1.30525 0.80552 0.49350
C3B C 0.81875 0.31881 0.50377
C1B C 0.73860 0.52341 0.38502
C2B C 0.91985 0.70459 0.38125
H2B H 0.86520 0.84492 0.29993
H1B H 0.55994 0.53940 0.30643
H3B H 0.69475 0.19448 0.50650

#END
