
#######################################################################
#
#                 Cambridge Crystallographic Data Centre
#                                CCDC 
#
#######################################################################
#
# If this CIF has been generated from an entry in the Cambridge 
# Structural Database, then it will include bibliographic, chemical, 
# crystal, experimental, refinement or atomic coordinate data resulting 
# from the CCDC's data processing and validation procedures.
#
#######################################################################

data_CTMTNA15
_symmetry_cell_setting           orthorhombic
_symmetry_space_group_name_H-M   'P b c a'
_symmetry_Int_Tables_number      61
_space_group_name_Hall           '-P 2ac 2ab'
loop_
_symmetry_equiv_pos_site_id
_symmetry_equiv_pos_as_xyz
1 x,y,z
2 1/2-x,-y,1/2+z
3 -x,1/2+y,1/2-z
4 1/2+x,1/2-y,-z
5 -x,-y,-z
6 1/2+x,y,1/2-z
7 x,1/2-y,1/2+z
8 1/2-x,1/2+y,z
_cell_length_a                   11.545(4)
_cell_length_b                   10.663(3)
_cell_length_c                   13.185(4)
_cell_angle_alpha                90
_cell_angle_beta                 90
_cell_angle_gamma                90
_cell_volume                     1623.13
loop_
_atom_site_label
_atom_site_type_symbol
_atom_site_fract_x
_atom_site_fract_y
_atom_site_fract_z
O1 O 0.56806(9) 0.43377(11) 0.76543(8)
O2 O 0.59320(10) 0.23702(11) 0.72819(10)
O3 O 0.43005(10) 0.60159(11) 0.54646(11)
N1 N 0.29791(9) 0.45610(11) 0.58742(10)
O4 O 0.46746(11) 0.13662(12) 0.47492(11)
O5 O 0.31660(12) 0.52887(12) 0.42953(10)
O6 O 0.35239(11) 0.25278(12) 0.38573(10)
N2 N 0.32019(10) 0.23357(11) 0.55248(9)
N3 N 0.43525(10) 0.33426(11) 0.67517(9)
N4 N 0.53744(10) 0.33493(13) 0.72662(9)
N5 N 0.38619(11) 0.20824(12) 0.46510(10)
N6 N 0.35381(11) 0.53219(12) 0.51556(11)
C1 C 0.37984(12) 0.21569(13) 0.64835(12)
H1 H 0.4388 0.1487 0.6418
H2 H 0.3240 0.1909 0.7017
C2 C 0.24265(11) 0.34221(14) 0.54894(11)
H3 H 0.2177 0.3563 0.4780
H4 H 0.1727 0.3242 0.5898
C3 C 0.35729(12) 0.44141(13) 0.68394(12)
H5 H 0.3004 0.4268 0.7389
H6 H 0.4018 0.5182 0.7001
O1 O -0.06806(9) 0.56623(11) 0.26543(8)
O2 O -0.09320(10) 0.76298(11) 0.22819(10)
O3 O 0.06995(10) 0.39841(11) 0.04646(11)
N1 N 0.20209(9) 0.54390(11) 0.08742(10)
O4 O 0.03254(11) 0.86338(12) -0.02508(11)
O5 O 0.18340(12) 0.47113(12) -0.07047(10)
O6 O 0.14761(11) 0.74722(12) -0.11427(10)
N2 N 0.17981(10) 0.76643(11) 0.05248(9)
N3 N 0.06475(10) 0.66574(11) 0.17517(9)
N4 N -0.03744(10) 0.66507(13) 0.22662(9)
N5 N 0.11381(11) 0.79176(12) -0.03490(10)
N6 N 0.14619(11) 0.46781(12) 0.01556(11)
C1 C 0.12016(12) 0.78431(13) 0.14835(12)
H1 H 0.0612 0.8513 0.1418
H2 H 0.1760 0.8091 0.2017
C2 C 0.25735(11) 0.65779(14) 0.04894(11)
H3 H 0.2823 0.6437 -0.0220
H4 H 0.3273 0.6758 0.0898
C3 C 0.14271(12) 0.55859(13) 0.18394(12)
H5 H 0.1996 0.5732 0.2389
H6 H 0.0982 0.4818 0.2001
O1 O 0.43194(9) 0.93377(11) 0.73457(8)
O2 O 0.40680(10) 0.73702(11) 0.77181(10)
O3 O 0.56995(10) 1.10159(11) 0.95354(11)
N1 N 0.70209(9) 0.95610(11) 0.91258(10)
O4 O 0.53254(11) 0.63662(12) 1.02508(11)
O5 O 0.68340(12) 1.02887(12) 1.07047(10)
O6 O 0.64761(11) 0.75278(12) 1.11427(10)
N2 N 0.67981(10) 0.73357(11) 0.94752(9)
N3 N 0.56475(10) 0.83426(11) 0.82483(9)
N4 N 0.46256(10) 0.83493(13) 0.77338(9)
N5 N 0.61381(11) 0.70824(12) 1.03490(10)
N6 N 0.64619(11) 1.03219(12) 0.98444(11)
C1 C 0.62016(12) 0.71569(13) 0.85165(12)
H1 H 0.5612 0.6487 0.8582
H2 H 0.6760 0.6909 0.7983
C2 C 0.75735(11) 0.84221(14) 0.95106(11)
H3 H 0.7823 0.8563 1.0220
H4 H 0.8273 0.8242 0.9102
C3 C 0.64271(12) 0.94141(13) 0.81606(12)
H5 H 0.6996 0.9268 0.7611
H6 H 0.5982 1.0182 0.7999
O1 O 1.06806(9) 0.06623(11) 0.23457(8)
O2 O 1.09320(10) 0.26298(11) 0.27181(10)
O3 O 0.93005(10) -0.10159(11) 0.45354(11)
N1 N 0.79791(9) 0.04390(11) 0.41258(10)
O4 O 0.96746(11) 0.36338(12) 0.52508(11)
O5 O 0.81660(12) -0.02887(12) 0.57047(10)
O6 O 0.85239(11) 0.24722(12) 0.61427(10)
N2 N 0.82019(10) 0.26643(11) 0.44752(9)
N3 N 0.93525(10) 0.16574(11) 0.32483(9)
N4 N 1.03744(10) 0.16507(13) 0.27338(9)
N5 N 0.88619(11) 0.29176(12) 0.53490(10)
N6 N 0.85381(11) -0.03219(12) 0.48444(11)
C1 C 0.87984(12) 0.28431(13) 0.35165(12)
H1 H 0.9388 0.3513 0.3582
H2 H 0.8240 0.3091 0.2983
C2 C 0.74265(11) 0.15779(14) 0.45106(11)
H3 H 0.7177 0.1437 0.5220
H4 H 0.6727 0.1758 0.4102
C3 C 0.85729(12) 0.05859(13) 0.31606(12)
H5 H 0.8004 0.0732 0.2611
H6 H 0.9018 -0.0182 0.2999
O1 O 0.43194(9) 0.56623(11) 0.23457(8)
O2 O 0.40680(10) 0.76298(11) 0.27181(10)
O3 O 0.56995(10) 0.39841(11) 0.45354(11)
N1 N 0.70209(9) 0.54390(11) 0.41258(10)
O4 O 0.53254(11) 0.86338(12) 0.52508(11)
O5 O 0.68340(12) 0.47113(12) 0.57047(10)
O6 O 0.64761(11) 0.74722(12) 0.61427(10)
N2 N 0.67981(10) 0.76643(11) 0.44752(9)
N3 N 0.56475(10) 0.66574(11) 0.32483(9)
N4 N 0.46256(10) 0.66507(13) 0.27338(9)
N5 N 0.61381(11) 0.79176(12) 0.53490(10)
N6 N 0.64619(11) 0.46781(12) 0.48444(11)
C1 C 0.62016(12) 0.78431(13) 0.35165(12)
H1 H 0.5612 0.8513 0.3582
H2 H 0.6760 0.8091 0.2983
C2 C 0.75735(11) 0.65779(14) 0.45106(11)
H3 H 0.7823 0.6437 0.5220
H4 H 0.8273 0.6758 0.4102
C3 C 0.64271(12) 0.55859(13) 0.31606(12)
H5 H 0.6996 0.5732 0.2611
H6 H 0.5982 0.4818 0.2999
O1 O 1.06806(9) 0.43377(11) 0.73457(8)
O2 O 1.09320(10) 0.23702(11) 0.77181(10)
O3 O 0.93005(10) 0.60159(11) 0.95354(11)
N1 N 0.79791(9) 0.45610(11) 0.91258(10)
O4 O 0.96746(11) 0.13662(12) 1.02508(11)
O5 O 0.81660(12) 0.52887(12) 1.07047(10)
O6 O 0.85239(11) 0.25278(12) 1.11427(10)
N2 N 0.82019(10) 0.23357(11) 0.94752(9)
N3 N 0.93525(10) 0.33426(11) 0.82483(9)
N4 N 1.03744(10) 0.33493(13) 0.77338(9)
N5 N 0.88619(11) 0.20824(12) 1.03490(10)
N6 N 0.85381(11) 0.53219(12) 0.98444(11)
C1 C 0.87984(12) 0.21569(13) 0.85165(12)
H1 H 0.9388 0.1487 0.8582
H2 H 0.8240 0.1909 0.7983
C2 C 0.74265(11) 0.34221(14) 0.95106(11)
H3 H 0.7177 0.3563 1.0220
H4 H 0.6727 0.3242 0.9102
C3 C 0.85729(12) 0.44141(13) 0.81606(12)
H5 H 0.8004 0.4268 0.7611
H6 H 0.9018 0.5182 0.7999
O1 O 0.56806(9) 0.06623(11) 0.26543(8)
O2 O 0.59320(10) 0.26298(11) 0.22819(10)
O3 O 0.43005(10) -0.10159(11) 0.04646(11)
N1 N 0.29791(9) 0.04390(11) 0.08742(10)
O4 O 0.46746(11) 0.36338(12) -0.02508(11)
O5 O 0.31660(12) -0.02887(12) -0.07047(10)
O6 O 0.35239(11) 0.24722(12) -0.11427(10)
N2 N 0.32019(10) 0.26643(11) 0.05248(9)
N3 N 0.43525(10) 0.16574(11) 0.17517(9)
N4 N 0.53744(10) 0.16507(13) 0.22662(9)
N5 N 0.38619(11) 0.29176(12) -0.03490(10)
N6 N 0.35381(11) -0.03219(12) 0.01556(11)
C1 C 0.37984(12) 0.28431(13) 0.14835(12)
H1 H 0.4388 0.3513 0.1418
H2 H 0.3240 0.3091 0.2017
C2 C 0.24265(11) 0.15779(14) 0.04894(11)
H3 H 0.2177 0.1437 -0.0220
H4 H 0.1727 0.1758 0.0898
C3 C 0.35729(12) 0.05859(13) 0.18394(12)
H5 H 0.3004 0.0732 0.2389
H6 H 0.4018 -0.0182 0.2001
O1 O -0.06806(9) 0.93377(11) 0.76543(8)
O2 O -0.09320(10) 0.73702(11) 0.72819(10)
O3 O 0.06995(10) 1.10159(11) 0.54646(11)
N1 N 0.20209(9) 0.95610(11) 0.58742(10)
O4 O 0.03254(11) 0.63662(12) 0.47492(11)
O5 O 0.18340(12) 1.02887(12) 0.42953(10)
O6 O 0.14761(11) 0.75278(12) 0.38573(10)
N2 N 0.17981(10) 0.73357(11) 0.55248(9)
N3 N 0.06475(10) 0.83426(11) 0.67517(9)
N4 N -0.03744(10) 0.83493(13) 0.72662(9)
N5 N 0.11381(11) 0.70824(12) 0.46510(10)
N6 N 0.14619(11) 1.03219(12) 0.51556(11)
C1 C 0.12016(12) 0.71569(13) 0.64835(12)
H1 H 0.0612 0.6487 0.6418
H2 H 0.1760 0.6909 0.7017
C2 C 0.25735(11) 0.84221(14) 0.54894(11)
H3 H 0.2823 0.8563 0.4780
H4 H 0.3273 0.8242 0.5898
C3 C 0.14271(12) 0.94141(13) 0.68394(12)
H5 H 0.1996 0.9268 0.7389
H6 H 0.0982 1.0182 0.7001

#END
